Version 4.1
SHEET 1 904 680
WIRE -176 -32 -192 -32
WIRE -96 -32 -176 -32
WIRE 208 -32 -96 -32
WIRE 240 -32 208 -32
WIRE 464 -32 320 -32
WIRE 496 -32 464 -32
WIRE 592 -32 560 -32
WIRE 720 -32 592 -32
WIRE 848 -32 720 -32
WIRE 720 0 720 -32
WIRE 848 0 848 -32
WIRE 208 32 208 -32
WIRE 464 80 464 -32
WIRE 464 80 384 80
WIRE -192 96 -192 -32
WIRE 48 96 32 96
WIRE 384 96 384 80
WIRE 384 96 368 96
WIRE 464 96 464 80
WIRE 432 112 432 96
WIRE 592 160 592 -32
WIRE -96 176 -96 -32
WIRE 48 176 -96 176
WIRE 416 176 368 176
WIRE -80 272 -128 272
WIRE 48 272 0 272
WIRE 592 272 592 240
WIRE 592 272 368 272
WIRE 592 304 592 272
FLAG -192 272 0
FLAG -32 96 0
FLAG 720 64 0
FLAG 848 80 0
FLAG 592 384 0
FLAG -192 176 0
FLAG 464 192 0
FLAG 208 336 0
FLAG 848 -32 out
FLAG -176 -32 in
SYMBOL PowerProducts\\LTC3872 208 176 R0
SYMATTR InstName U1
SYMBOL res -96 256 M90
WINDOW 0 0 56 VBottom 2
WINDOW 3 32 56 VTop 2
SYMATTR InstName R1
SYMATTR Value 6.81k
SYMBOL cap -128 256 R90
WINDOW 0 0 32 VBottom 2
WINDOW 3 32 32 VTop 2
SYMATTR InstName C1
SYMATTR Value 4700p
SYMBOL cap 32 80 R90
WINDOW 0 0 32 VBottom 2
WINDOW 3 32 32 VTop 2
SYMATTR InstName C2
SYMATTR Value 100p
SYMBOL ind 224 -16 R270
WINDOW 0 32 56 VTop 2
WINDOW 3 5 56 VBottom 2
SYMATTR InstName L1
SYMATTR Value 2.2µ
SYMBOL diode 496 -16 R270
WINDOW 0 32 32 VTop 2
WINDOW 3 0 32 VBottom 2
SYMATTR InstName D1
SYMATTR Value 1N5817
SYMATTR Description Diode
SYMATTR Type diode
SYMBOL cap 704 0 R0
SYMATTR InstName C3
SYMATTR Value 10µ
SYMBOL res 832 -16 R0
SYMATTR InstName R2
SYMATTR Value 10
SYMBOL res 576 144 R0
SYMATTR InstName R3
SYMATTR Value 38k
SYMBOL res 576 288 R0
SYMATTR InstName R4
SYMATTR Value 12k
SYMBOL voltage -192 80 R0
WINDOW 123 0 0 Left 0
WINDOW 39 0 0 Left 0
SYMATTR InstName V1
SYMATTR Value 3.3
SYMBOL nmos 416 96 R0
SYMATTR InstName M1
SYMATTR Value Si3460DV
TEXT -224 408 Left 2 !.tran 750u
