* SS34 Schottky Diode
* ===================
.MODEL SS34 D
+ IS = 2E-6
+ N = 1.05
+ RS = 0.025
+ CJO = 1.1E-9
+ M = 0.333
+ VJ = 0.33
+ BV = 40
+ IBV = 0.001
+ TT = 1E-7
