Version 4
SHEET 1 880 680
WIRE -96 16 -240 16
WIRE -32 16 -96 16
WIRE 128 16 48 16
WIRE 256 16 192 16
WIRE -96 64 -96 16
WIRE -240 96 -240 16
WIRE -96 160 -96 128
WIRE -240 240 -240 176
FLAG -240 240 0
FLAG -96 240 0
SYMBOL current -240 176 R180
WINDOW 0 24 80 Left 2
WINDOW 3 24 0 Left 2
WINDOW 123 0 0 Left 2
WINDOW 39 0 0 Left 2
SYMATTR InstName I1
SYMATTR Value 0.19
SYMBOL diode 128 32 R270
WINDOW 0 32 32 VTop 2
WINDOW 3 0 32 VBottom 2
SYMATTR InstName D2
SYMATTR Value SS24
SYMBOL diode -112 64 R0
SYMATTR InstName D3
SYMATTR Value 1N4148
SYMBOL res -112 144 R0
SYMATTR InstName R2
SYMATTR Value 27.15
SYMBOL res 64 0 R90
WINDOW 0 0 56 VBottom 2
WINDOW 3 32 56 VTop 2
SYMATTR InstName R1
SYMATTR Value 1
TEXT -312 368 Left 2 !.tran 0.2
