Version 4
SHEET 1 884 680
WIRE 576 -48 256 -48
WIRE 576 -16 576 -48
WIRE -96 16 -240 16
WIRE -32 16 -96 16
WIRE 128 16 48 16
WIRE 256 16 256 -48
WIRE 256 16 192 16
WIRE -96 64 -96 16
WIRE 784 80 720 80
WIRE 864 80 848 80
WIRE -240 96 -240 16
WIRE 864 112 864 80
WIRE -96 160 -96 128
WIRE -240 240 -240 176
WIRE 784 272 720 272
WIRE 784 304 784 272
FLAG -240 240 0
FLAG -96 240 0
FLAG 864 112 0
FLAG 576 368 0
FLAG 784 384 0
SYMBOL current -240 176 R180
WINDOW 0 24 80 Left 2
WINDOW 3 24 0 Left 2
WINDOW 123 0 0 Left 2
WINDOW 39 0 0 Left 2
SYMATTR InstName I1
SYMATTR Value 0.19
SYMBOL diode 128 32 R270
WINDOW 0 32 32 VTop 2
WINDOW 3 0 32 VBottom 2
SYMATTR InstName D2
SYMATTR Value SS24
SYMBOL diode -112 64 R0
SYMATTR InstName D3
SYMATTR Value 1N4148
SYMBOL res -112 144 R0
SYMATTR InstName R2
SYMATTR Value 27.15
SYMBOL res 64 0 R90
WINDOW 0 0 56 VBottom 2
WINDOW 3 32 56 VTop 2
SYMATTR InstName R1
SYMATTR Value 1
SYMBOL PowerProducts\\LTC4054-4.2 576 176 R0
SYMATTR InstName U1
SYMBOL cap 848 64 R90
WINDOW 0 0 32 VBottom 2
WINDOW 3 32 32 VTop 2
SYMATTR InstName C1
SYMATTR Value 100”
SYMBOL res 768 288 R0
SYMATTR InstName R3
SYMATTR Value 1.2k
TEXT -312 368 Left 2 !.tran 0.2
