Version 4.1
SHEET 1 2740 688
WIRE 816 144 624 144
WIRE 944 144 816 144
WIRE 1088 144 944 144
WIRE 816 160 816 144
WIRE 1088 176 1088 144
WIRE 720 192 368 192
WIRE 368 208 368 192
WIRE 400 208 368 208
WIRE 656 208 624 208
WIRE 656 256 656 208
WIRE 816 256 816 240
WIRE 816 256 656 256
WIRE 400 272 80 272
WIRE 640 272 624 272
WIRE 640 304 640 272
WIRE 720 304 720 192
WIRE 720 304 640 304
WIRE 640 336 624 336
WIRE 720 352 720 304
WIRE 816 352 816 336
WIRE 816 352 720 352
WIRE 640 384 640 336
WIRE 80 400 80 272
WIRE 128 400 80 400
WIRE -128 512 -128 496
WIRE -32 512 -32 480
WIRE -32 512 -128 512
WIRE 80 512 -32 512
WIRE 176 512 176 416
WIRE 176 512 144 512
WIRE 224 512 176 512
WIRE 368 512 304 512
WIRE 368 544 368 512
FLAG 400 144 0
FLAG 816 416 0
FLAG 1088 256 0
FLAG 944 208 0
FLAG 640 448 0
FLAG 368 624 0
FLAG -128 416 0
FLAG -32 416 0
FLAG 176 320 0
SYMBOL Misc\\NE555 512 240 R0
SYMATTR InstName U2
SYMBOL cap 800 352 R0
SYMATTR InstName C1
SYMATTR Value 250p
SYMBOL res 800 144 R0
SYMATTR InstName R5
SYMATTR Value 8k
SYMBOL nmos 128 320 R0
SYMATTR InstName M1
SYMATTR Value IRLML6344
SYMBOL voltage 1088 160 R0
WINDOW 123 0 0 Left 0
WINDOW 39 0 0 Left 0
SYMATTR InstName V1
SYMATTR Value 3.3
SYMBOL cap 928 144 R0
SYMATTR InstName C2
SYMATTR Value 0.1”
SYMBOL res 800 240 R0
SYMATTR InstName R6
SYMATTR Value 4k
SYMBOL cap 624 384 R0
SYMATTR InstName C3
SYMATTR Value 0.001”
SYMBOL ind 320 496 R90
WINDOW 0 5 56 VBottom 2
WINDOW 3 32 56 VTop 2
SYMATTR InstName L1
SYMATTR Value 6.8”
SYMBOL voltage 368 528 R0
WINDOW 123 0 0 Left 0
WINDOW 39 0 0 Left 0
SYMATTR InstName V2
SYMATTR Value 3.7
SYMBOL diode 144 496 R90
WINDOW 0 0 32 VBottom 2
WINDOW 3 32 32 VTop 2
SYMATTR InstName D5
SYMATTR Value RSX501LAM20
SYMBOL res -144 400 R0
SYMATTR InstName R7
SYMATTR Value 10
SYMBOL cap -48 416 R0
SYMATTR InstName C4
SYMATTR Value 1000”
TEXT -144 648 Left 2 !.tran 20u
TEXT 872 392 Left 2 ;250 p
TEXT 416 592 Left 2 ;baterry
TEXT -136 616 Left 2 ;cel: V_out = 5V, I_out = 1.5 A
