Version 4.1
SHEET 1 2740 680
WIRE 592 -576 432 -576
WIRE 688 -576 592 -576
WIRE 800 -576 768 -576
WIRE 880 -576 864 -576
WIRE 1136 -576 880 -576
WIRE 1424 -576 1136 -576
WIRE 1136 -560 1136 -576
WIRE 1424 -560 1424 -576
WIRE 592 -544 592 -576
WIRE 1136 -464 1136 -496
WIRE 1680 -464 1568 -464
WIRE 432 -448 432 -576
WIRE 592 -448 592 -480
WIRE 1680 -448 1680 -464
WIRE 1136 -368 1136 -384
WIRE 1280 -368 1136 -368
WIRE 1680 -368 1680 -384
WIRE 1584 -272 1568 -272
WIRE 1680 -272 1664 -272
WIRE 1424 -160 1424 -176
WIRE 688 144 624 144
WIRE 816 144 688 144
WIRE 688 160 688 144
WIRE 816 160 816 144
WIRE 656 208 624 208
WIRE 640 272 624 272
WIRE 656 272 656 208
WIRE 816 272 816 240
WIRE 816 272 656 272
WIRE 640 304 640 272
WIRE 816 304 816 272
WIRE 816 304 640 304
WIRE 816 352 816 304
FLAG 1424 -160 0
FLAG 1680 -368 0
FLAG 1680 -272 0
FLAG 880 -576 IN
FLAG 1680 -464 OUT
FLAG 592 -368 0
FLAG 432 -368 0
FLAG 400 144 0
FLAG 816 416 0
FLAG 688 224 0
SYMBOL cap 1664 -448 R0
SYMATTR InstName CBAT
SYMATTR Value 1500m
SYMBOL res 1568 -256 R270
WINDOW 0 32 56 VTop 2
WINDOW 3 0 56 VBottom 2
SYMATTR InstName R1
SYMATTR Value 1.5K
SYMBOL LTC4054-4.2 1424 -368 R0
SYMATTR InstName U1
SYMBOL res 1120 -480 R0
SYMATTR InstName R2
SYMATTR Value 330
SYMBOL LED 1120 -560 R0
SYMATTR InstName D1
SYMATTR Value NSCW100
SYMATTR Description Diode
SYMATTR Type diode
SYMBOL current 432 -368 R180
WINDOW 0 24 80 Left 2
WINDOW 3 24 0 Left 2
WINDOW 123 0 0 Left 0
WINDOW 39 0 0 Left 0
SYMATTR InstName I1
SYMATTR Value 0.19
SYMBOL res 576 -464 R0
SYMATTR InstName R3
SYMATTR Value 27.15
SYMBOL res 784 -592 R90
WINDOW 0 0 56 VBottom 2
WINDOW 3 32 56 VTop 2
SYMATTR InstName R4
SYMATTR Value 1
SYMBOL diode 576 -544 R0
SYMATTR InstName D2
SYMATTR Value 1N4148
SYMBOL diode 800 -560 R270
WINDOW 0 32 32 VTop 2
WINDOW 3 0 32 VBottom 2
SYMATTR InstName D3
SYMATTR Value SS24
SYMATTR Description Diode
SYMATTR Type diode
SYMBOL Misc\\NE555 512 240 R0
SYMATTR InstName U2
SYMBOL cap 800 352 R0
SYMATTR InstName C1
SYMBOL res 800 144 R0
SYMATTR InstName R5
SYMBOL cap 672 160 R0
SYMATTR InstName C2
SYMATTR Value 0.1”
SYMBOL nmos 1072 64 R0
SYMATTR InstName M1
SYMATTR Value IRLML6344
TEXT 1656 -200 Left 2 !.tran 900
